-- This reservoir simulation deck is made available under the Open Database
-- License: http://opendatacommons.org/licenses/odbl/1.0/. Any rights in
-- individual contents of the database are licensed under the Database Contents
-- License: http://opendatacommons.org/licenses/dbcl/1.0/
-- Copyright (C) 2024-2025 NORCE Research AS
---------------------------------------------------------------------------
RUNSPEC
---------------------------------------------------------------------------
DIMENS 
20 20 1 /

EQLDIMS
/

TABDIMS
/

GAS
WATER
CO2STORE

METRIC

START
18 JAN 1991 /

UNIFOUT
---------------------------------------------------------------------------
GRID
---------------------------------------------------------------------------
INIT

DX 
400*1 /

DY 
400*1 /

DZ 
400*1 /

TOPS
400*0 /

PORO 
20*0.20
20*0.19
20*0.18
20*0.17
20*0.16
20*0.15
20*0.14
20*0.13
20*0.12
20*0.11
20*0.10
20*0.09
20*0.08
20*0.07
20*0.06
20*0.05
20*0.04
20*0.03
20*0.02
20*0.01
/

PERMX 
20*100
20*200
20*300
20*400
20*500
20*600
20*700
20*800
20*900
20*1000
20*1100
20*1200
20*1300
20*1400
20*1500
20*1600
20*1700
20*1800
20*1900
20*2000
/

PERMY 
20*100
20*200
20*300
20*400
20*500
20*600
20*700
20*800
20*900
20*1000
20*1100
20*1200
20*1300
20*1400
20*1500
20*1600
20*1700
20*1800
20*1900
20*2000
/

PERMZ
400*1 /

EQUALS
PORO 0 6 10 11 15 2* /
PORO 0.08 8 8 13 13 2* /
PORO 0 16 20 1 5 2* /
/
---------------------------------------------------------------------------
PROPS
---------------------------------------------------------------------------
SGWFN
0 0	1 0
1 1 0 0 /
---------------------------------------------------------------------------
REGIONS
---------------------------------------------------------------------------
FIPNUM
20*20
20*19
20*18
20*17
20*16
20*15
20*14
20*13
20*12
20*11
20*10
20*9
20*8
20*7
20*6
20*5
20*4
20*3
20*2
20*1
/
---------------------------------------------------------------------------
SOLUTION
---------------------------------------------------------------------------
EQUIL
0 1 0 0 0 0 1 1 0 /

RPTRST
BASIC=2 /
---------------------------------------------------------------------------
SCHEDULE
---------------------------------------------------------------------------
RPTRST
BASIC=2 /

TSTEP
1 /
