-- This reservoir simulation deck is made available under the Open Database
-- License: http://opendatacommons.org/licenses/odbl/1.0/. Any rights in
-- individual contents of the database are licensed under the Database Contents
-- License: http://opendatacommons.org/licenses/dbcl/1.0/

-- Copyright (C) 2022 Equinor

-- A modified sector from the original model in:
-- https://github.com/OPM/opm-tests/tree/master/drogon/model/DROGON_HIST.DATA
-- All keywords are included in this file and an attempt has been made to reduce
-- the size of the file by including only the needed values.

RUNSPEC
START
1 JAN 2018 /
OIL
GAS
WATER
DISGAS
VAPOIL
METRIC
EQLOPTS
'THPRES' /
TRACERS
1* 2 /
DIMENS
46 73 31 /
TABDIMS 
12 2 200 24 6 20 /
EQLDIMS
7 /
REGDIMS
21 2 /
GRIDOPTS
'YES' 3 /
FAULTDIM
500 /
WELLDIMS
20 100 10 20 /
WSEGDIMS
3 150 100 /
UNIFIN
UNIFOUT
NOINSPEC
NORSSPEC
MESSAGES
3* 1000 10 3* 1000000 7000 0 /
GRID
INIT
PERMX
139.0823211669922 23.204925537109375 5.205924987792969 247.55581665039062 136.87722778320312 86.06392669677734 73.66801452636719 5.684290885925293 52.90779113769531 202.4747772216797 86.52719116210938 33.52220916748047 47.26899337768555 83.29106903076172 113.02876281738281 174.46725463867188 96.97396850585938 64.13240814208984 992.0463256835938 548.9923095703125 290.3153076171875 131.42872619628906 74.32085418701172 99.23590850830078 119.85318756103516 98.21647644042969 96.83252716064453 1017.126220703125 806.06591796875 783.4224243164062 855.4625244140625 603.953125 284.28167724609375 336.56658935546875 102.2677993774414 86.04248046875 643.0460815429688 1297.0484619140625 1360.3912353515625 1385.3046875 1057.211181640625 998.0457763671875 1314.7742919921875 1032.4857177734375 777.8806762695312 1328.6749267578125 1266.9591064453125 1015.4644165039062 1077.949951171875 1092.684326171875 979.8817749023438 1160.8780517578125 1124.5269775390625 1310.78369140625 95.43958282470703 93.5650863647461 73.3431625366211 131.44046020507812 83.54756164550781 121.22592163085938 107.00531005859375 112.92147827148438 101.71153259277344 397.7687072753906 149.84788513183594 71.76558685302734 73.5660171508789 108.3585433959961 113.2954330444336 100.6272964477539 91.68488311767578 86.75674438476562 909.265869140625 543.9888305664062 112.0541000366211 98.43082427978516 109.06585693359375 124.22926330566406 79.39866638183594 87.20072174072266 80.80770111083984 722.8904418945312 859.1057739257812 604.7488403320312 379.6116638183594 159.06175231933594 101.84855651855469 99.12358093261719 98.45510864257812 69.52315521240234 717.2465209960938 993.0238037109375 1324.6922607421875 1280.5927734375 1102.675537109375 1154.681884765625 1233.1651611328125 696.649658203125 202.07254028320312 917.9326171875 1193.1536865234375 1292.3070068359375 1093.919677734375 1176.8868408203125 1124.0447998046875 1225.6787109375 1209.197265625 1363.5853271484375 38.8404541015625 45.28077697753906 0.09313713014125824 53.035396575927734 0.30962690711021423 0.6645277738571167 0.7124314904212952 61.9444580078125 409.88043212890625 463.7036437988281 180.57688903808594 27.257898330688477 31.179101943969727 25.877235412597656 0.06783401966094971 0.5901346802711487 13.074939727783203 89.90157318115234 686.317138671875 750.8456420898438 328.0142517089844 231.6405792236328 274.2759094238281 49.55556869506836 6.587679386138916 74.3143081665039 101.91985321044922 738.8609008789062 794.1934204101562 977.6621704101562 661.3602905273438 430.071044921875 384.47991943359375 122.02871704101562 110.2551498413086 81.50724792480469 708.4920043945312 874.9434814453125 855.939208984375 952.4151000976562 945.4789428710938 1115.5946044921875 1231.393798828125 744.5628051757812 170.008056640625 738.78173828125 988.9037475585938 987.622802734375 1016.0145263671875 1001.6785278320312 1102.6148681640625 1035.150634765625 1145.5467529296875 1040.3016357421875 0.6801607608795166 0.14344564080238342 0.0664607360959053 0.4687729775905609 0.27872803807258606 0.5608358979225159 6.150033473968506 78.59441375732422 86.56851196289062 23.733858108520508 30.133251190185547 20.31136703491211 22.96955680847168 78.52338409423828 6.4758687019348145 0.5865297913551331 19.24753189086914 93.87146759033203 237.99452209472656 85.3601303100586 43.1332893371582 76.09862518310547 297.52520751953125 249.81585693359375 5.969895362854004 62.6716423034668 112.87692260742188 746.9989013671875 578.1943969726562 594.11328125 463.31475830078125 55.02360916137695 0.1378181427717209 65.59737396240234 136.85874938964844 139.88168334960938 664.60888671875 771.4476928710938 815.7276611328125 855.2958984375 707.466064453125 410.6346130371094 106.39806365966797 87.24225616455078 120.44155883789062 755.5230102539062 814.2072143554688 793.2265014648438 942.4811401367188 1011.31640625 1152.3123779296875 1147.1199951171875 587.6895141601562 344.9365539550781 0.853734016418457 0.6452258825302124 0.41364195942878723 0.6235899925231934 0.5600594878196716 0.5354454517364502 152.40003967285156 366.6351013183594 56.916194915771484 0.5482189655303955 0.28438833355903625 0.24213168025016785 0.36559218168258667 0.45284318923950195 0.5501464009284973 7.202685832977295 161.23472595214844 310.2659606933594 0.3938292860984802 0 0 0.07053434103727341 0.3271722197532654 0.27621862292289734 0.5278236269950867 0.47548824548721313 74.46595764160156 371.67681884765625 0 0 0.05222229287028313 0.17625951766967773 0.25906136631965637 0.2818250060081482 5.696473121643066 0.43293577432632446 618.153076171875 714.6926879882812 1092.6707763671875 345.08056640625 20.67462158203125 0.29306501150131226 0.2830289602279663 0.36272338032722473 0.4431803822517395 880.8423461914062 1007.7548828125 930.8599853515625 1033.6614990234375 1183.7843017578125 1048.5234375 703.45703125 469.4162292480469 0.22123058140277863 0.4204567074775696 0.3550387918949127 0.35253098607063293 0.26245641708374023 0.30261918902397156 0.3245284855365753 53.405609130859375 61.03990936279297 60.941341400146484 0.3720153570175171 0.2263723462820053 0.20360971987247467 0.27893897891044617 0.1789187788963318 0.3357481360435486 13.453556060791016 61.3529167175293 97.02611541748047 0.09412382543087006 0 0.13937561213970184 0.34947729110717773 0.324726939201355 0.308363139629364 0.38977015018463135 0.3476063311100006 26.87152671813965 504.9607238769531 0.23346440494060516 0 0.2807385325431824 0.23167981207370758 0.3942181468009949 0.22614599764347076 0.2888777554035187 0.37852439284324646 935.8274536132812 753.3650512695312 535.0316772460938 0.39004963636398315 0.10134776681661606 0.4146836996078491 18.191492080688477 0.3800012767314911 0.4141867458820343 827.1074829101562 245.87069702148438 444.6227722167969 760.9681396484375 286.2410888671875 684.3842163085938 859.6431274414062 442.79248046875 39.95376968383789 0.2773285508155823 0.24115470051765442 0.16728876531124115 0.3709259331226349 0.21724781394004822 6.0748186111450195 29.162315368652344 27.60561180114746 39.99681854248047 0.8624920845031738 0.7560626268386841 0.03027605265378952 0.2675902545452118 0.061618443578481674 0.2787114977836609 23.32256507873535 42.45975112915039 56.592384338378906 191.5281219482422 48.86871337890625 0.13237616419792175 0.02677629142999649 0.30247563123703003 25.706192016601562 0.35621732473373413 0.3726581037044525 0.23797917366027832 720.4789428710938 341.73602294921875 181.98846435546875 0.19298401474952698 0.23104220628738403 0.24962937831878662 0.024045534431934357 0.2072715163230896 0.3531743586063385 601.9995727539062 694.1625366210938 478.376953125 0.1776019185781479 4.789370059967041 0.2356807440519333 279.13092041015625 0.14428561925888062 0.22960636019706726 0.24245397746562958 0 0.22470757365226746 114.07115173339844 0.033804021775722504 310.16070556640625 284.1256103515625 277.7812194824219 133.76223754882812 0.3753175437450409 0.37898319959640503 33.145198822021484 0.5653163194656372 0.38994839787483215 31.541990280151367 71.64720916748047 45.39772033691406 0.44514283537864685 0.259314626455307 5.469479084014893 0.47036635875701904 0.5174084901809692 0.4708001911640167 6.518572807312012 94.98106384277344 91.1091537475586 0.39651739597320557 43.20096206665039 44.37473678588867 0.1413802057504654 0.39100727438926697 0.5234081745147705 78.82862854003906 9.172467231750488 20.487995147705078 0.7262634634971619 664.0398559570312 349.56732177734375 74.21385192871094 4.140396595001221 6.938732147216797 22.214893341064453 88.89439392089844 9.202860832214355 0.27483248710632324 698.3952026367188 805.2393798828125 837.8436279296875 562.5077514648438 99.50080108642578 204.74366760253906 555.7756958007812 117.09264373779297 0 173.47813415527344 645.9417114257812 718.5104370117188 1049.152099609375 879.4240112304688 891.2611694335938 834.28759765625 515.03466796875 416.4051513671875 0.690654456615448 0.9101972579956055 253.49037170410156 132.8675079345703 55.58933639526367 21.728208541870117 52.07267379760742 84.07672882080078 0.4509395658969879 0.034802332520484924 0.6996957063674927 41.33848190307617 264.9016418457031 148.13092041015625 48.166175842285156 310.0077819824219 80.96849822998047 5.879374980926514 0 0.22710496187210083 0.47361162304878235 0.6667251586914062 0.694149374961853 95.24165344238281 38.49412536621094 134.74923706054688 35.67458724975586 490.72418212890625 279.1877746582031 279.8312683105469 0.4222414195537567 0.5398234128952026 0.6588648557662964 49.21442794799805 41.61676788330078 0.595661461353302 964.8961791992188 824.160400390625 1016.826171875 1086.9847412109375 684.9911499023438 564.1084594726562 670.8814697265625 175.09619140625 0.1823534518480301 851.279052734375 816.0987548828125 913.3202514648438 1131.6805419921875 1050.0498046875 897.4827270507812 871.5089111328125 850.7269287109375 605.2586059570312 0.06952901929616928 0.32018572092056274 281.1254577636719 5.719518661499023 1.2841334342956543 1.215024709701538 1.4352498054504395 339.7498474121094 0.2370360791683197 0.3278462588787079 0.3373397886753082 23.658321380615234 347.8837890625 91.74832916259766 44.02876281738281 399.6166076660156 93.08330535888672 1.4465543031692505 0.06879482418298721 0 1.6833677291870117 28.233375549316406 0.4207480847835541 1.9104773998260498 29.89990234375 90.2861557006836 32.934532165527344 281.1552734375 295.4687805175781 317.78076171875 1.2783842086791992 0.9917605519294739 0.32246989011764526 7.661455154418945 47.837398529052734 34.21659851074219 448.0382080078125 476.7066955566406 625.140380859375 679.5324096679688 333.9776916503906 85.31217956542969 267.8507385253906 73.40296936035156 29.44117546081543 461.55401611328125 470.57666015625 786.555908203125 1407.383056640625 982.6874389648438 755.1488647460938 449.6026916503906 284.20343017578125 291.5810852050781 1043.7044677734375 1127.2120361328125 1326.3502197265625 0 1607.3489990234375 1577.2279052734375 0 0 0 1105.631591796875 1224.0372314453125 1342.9725341796875 1225.9244384765625 1489.912109375 1474.398193359375 1503.906494140625 0 0 1011.9022827148438 1256.9169921875 1241.737060546875 1088.7557373046875 1260.0426025390625 1368.2425537109375 1159.7982177734375 911.3114624023438 0 1061.745849609375 1089.7193603515625 1131.3221435546875 1082.206787109375 0 960.2276611328125 91.62438201904297 360.6833190917969 0 952.5376586914062 858.7570190429688 689.1763916015625 0 0 0 0 582.5374145507812 0 737.5450439453125 792.7806396484375 778.30908203125 0 0 0 0 0 674.8181762695312 600.4588012695312 0 0 0 0 0 0 0 0 393.5282897949219 724.853759765625 1166.6964111328125 0 1087.58251953125 0 0 0 0 729.4324951171875 226.4773406982422 0 0 0 0 0 0 0 722.6567993164062 0 0 0 0 0 0 0 0 1092.45068359375 0 0 0 0 0 0 0 0 0 0 0 0 0 0 0 0 0 918.3323974609375 814.3247680664062 0 0 0 0 0 0 0 984.2721557617188 0 0 0 0 0 0 0 0 815.9540405273438 0 0 0 0 0 0 0 0 0 0 0 0 0 0 0 0 0 0 0 0 0 0 0 0 0 0 0 0 0 0 0 0 0 0 0 0 0 0 0 0 0 0 0 0 0 0 0 0 0 0 0 0 0 0 0 0 0 0 0 0 0 0 0 0 0 0 0 0 0 0 0 0 0 0 0 0 0 0 0 0 0 0 0 0 0 0 0 0 0 0 0 0 0 0 0 0 0 0 0 0 0 0 0 0 0 0 0 0 0 0 0 0 0 0 0 0 0 0 0 0 0 0 0 0 0 0 0 0 0 0 0 0 0 0 0 0 0 0 0 0 0 0 0 0 0 0 0 0 0 0 0 0 0 0 0 0 0 0 0 0 0 0 0 0 0 0 0 0 0 0 0 0 0 0 0 0 0 0 0 0 0 0 0 0 0 0 0 0 0 0 0 0 0 0 0 0 0 0 0 0 0 0 0 0 0 0 0 0 0 0 0 0 0 0 0 0 0 0 0 0 0 0 0 0 0 0 0 0 0 0 0 0 0 0 0 0 0 0 0 0 0 0 0 0 0 0 0 0 0 0 0 0 0 0 0 0 0 0 0 0 0 0 0 0 0 0 0 0 0 0 0 0 0 0 0 0 0 0 0 0 0 0 0 0 0 0 0 0 0 0 0 0 0 0 0 0 0 0 0 0 0 0 0 0 0 0 0 0 0 0 0 0 0 0 0 0 0 0 0 0 0 0 0 0 0 0 0 0 0 0 0 0 0 0 0 0 0 0 0 0 0 0 0 0 0 0 0 0 0 0 0 0 0 0 0 0 0 0 0 0 0 0 0 0 0 0 0 0 0 0 0 0 0 0 0 0 0 0 0 0 0 0 0 0 0 0 0 0 0 0 0 0 0 0 0 0 0 0 0 0 0 0 0 0 0 0 0 0 0 0 0 0 0 0 0 0 0 0 0 0 0 0 0 0 0 0 0 0 0 0 0 0 0 0 0 0 0 0 0 0 0 0 0 0 0 0 0 0 0 0 0 0 0 0 0 0 0 0 0 0 0 0 0 0 0 0 0 0 0 0 0 0 0 0 0 0 0 0 0 0 0 0 0 0 0 0 0 0 0 0 0 0 0 0 0 0 0 0 0 0 0 0 0 0 0 0 0 0 0 0 0 0 0 0 0 0 0 0 0 0 0 0 0 0 0 0 0 0 0 0 0 0 0 0 0 0 0 0 0 0 0 0 0 0 0 0 0 0 0 0 0 0 0 0 0 0 0 0 0 0 0 0 0 0 0 0 0 0 0 0 0 0 0 0 0 0 0 0 0 0 0 0 0 0 0 0 0 0 0 0 0 0 0 0 0 0 0 0 0 0 0 0 0 0 0 0 0 0 0 0 0 0 0 0 0 0 0 0 0 0 0 0 0 0 0 0 0 0 0 0 0 0 0 0 0 0 0 0 0 0 0 0 0 0 0 0 0 0 0 0 0 0 0 0 0 0 0 0 0 0 0 0 0 0 0 0 0 0 0 0 0 0 0 0 0 0 0 0 0 0 0 0 0 0 0 0 0 0 0 0 0 0 0 0 0 0 0 0 0 0 0 0 0 0 0 0 0 0 0 0 0 0 0 0 0 0 0 0 0 0 0 0 0 0 0 0 0 0 0 0 0 0 0 0 0 0 0 632.4818725585938 603.5999145507812 731.5494384765625 605.6949462890625 72.3389663696289 297.468017578125 934.056884765625 0.13126108050346375 0.11456414312124252 1021.030517578125 679.427734375 910.1345825195312 883.6011352539062 250.41001892089844 678.1619873046875 116.235107421875 0.0010000000474974513 191.00967407226562 995.1132202148438 677.698974609375 752.487060546875 646.5453491210938 659.4296875 610.4010620117188 0.0010000000474974513 305.4987487792969 367.69342041015625 629.5648803710938 790.1837768554688 1003.0933837890625 871.1884155273438 523.5690307617188 0.03395015001296997 399.8788146972656 591.208251953125 774.4882202148438 595.9292602539062 1069.516357421875 1254.863037109375 193.581298828125 0.0010000000474974513 188.6680908203125 1334.3016357421875 952.4567260742188 860.9030151367188 686.2099609375 985.3294677734375 513.7650146484375 0.04053005203604698 0.0010000000474974513 813.8394775390625 1091.7742919921875 68.11235046386719 1412.3453369140625 656.0084838867188 751.6043090820312 721.9705200195312 822.45849609375 43.258182525634766 1096.1202392578125 1729.3399658203125 986.9324340820312 37.23444747924805 938.871337890625 683.5211181640625 1101.724365234375 466.13092041015625 230.0321044921875 1493.9842529296875 626.2142944335938 1128.5386962890625 532.9375610351562 1014.2095947265625 249.6284942626953 775.5811767578125 142.86476135253906 1416.142822265625 1006.9254760742188 940.6837768554688 1158.772705078125 906.4517822265625 117.66638946533203 931.8305053710938 814.917236328125 1129.6591796875 1338.1072998046875 547.4906616210938 1694.6544189453125 1005.2625122070312 1271.673583984375 541.4454956054688 1561.83935546875 1876.6063232421875 1889.392578125 355.2990417480469 3100.021484375 2189.906494140625 1086.1217041015625 1456.094482421875 1011.4951171875 807.3858642578125 1175.5059814453125 1224.6680908203125 339.3541564941406 1210.305908203125 892.76171875 1671.232421875 2023.654052734375 407.8959045410156 1497.167236328125 1073.6324462890625 875.4407958984375 909.8557739257812 2003.9002685546875 617.23388671875 509.8237609863281 0.12113718688488007 124.47086334228516 1143.9940185546875 958.5949096679688 446.057861328125 1232.7099609375 1434.0128173828125 314.44580078125 727.0579833984375 57.0422248840332 620.1167602539062 706.78759765625 640.7656860351562 709.7320556640625 1005.6013793945312 1110.7237548828125 1092.8399658203125 521.6971435546875 508.9644470214844 1220.24560546875 1724.6805419921875 456.4366760253906 911.0861206054688 1001.3333740234375 1524.1982421875 1180.7325439453125 1037.0843505859375 1771.2288818359375 2249.47119140625 4038.802490234375 1206.7613525390625 1233.7230224609375 1096.5411376953125 1503.6292724609375 1279.7633056640625 1034.3505859375 891.8585815429688 1994.51513671875 2657.705810546875 1404.78955078125 1377.1572265625 1238.3675537109375 1833.85986328125 1157.529541015625 1067.72119140625 1248.5738525390625 480.35931396484375 1145.3037109375 1285.0657958984375 1194.449462890625 1087.634521484375 911.3006591796875 817.4876708984375 0.14457230269908905 395.2792053222656 514.448486328125 1225.28466796875 987.6360473632812 1160.2957763671875 1218.579345703125 1092.0760498046875 372.8397216796875 0.09873764216899872 351.9236145019531 706.1593627929688 1393.4130859375 808.3593139648438 1595.4771728515625 1700.025146484375 1119.9237060546875 617.0003051757812 0.0010000000474974513 597.1045532226562 1410.2396240234375 1076.4227294921875 1019.2868041992188 1150.66259765625 994.416015625 440.66534423828125 145.41879272460938 0.033179011195898056 262.2247619628906 1721.6322021484375 1640.871826171875 1934.6214599609375 1231.0845947265625 772.9222412109375 159.96730041503906 0.027999309822916985 391.5557861328125 1247.454345703125 1486.93408203125 1277.6396484375 2043.80712890625 1787.9951171875 1008.8668823242188 119.57613372802734 556.8369140625 409.1479187011719 1415.078369140625 252.23715209960938 395.8147277832031 606.9705810546875 176.60052490234375 198.60235595703125 248.49156188964844 274.919921875 673.1250610351562 1029.2420654296875 0.0010000000474974513 60.32012939453125 293.04327392578125 421.5581970214844 114.62203979492188 1275.7535400390625 569.9440307617188 1220.669677734375 1131.5484619140625 0.07355720549821854 224.95291137695312 0.05145543813705444 607.4252319335938 1848.7313232421875 2323.72265625 881.6577758789062 1762.471435546875 758.2889404296875 229.28892517089844 0.0010000000474974513 0.0010000000474974513 1088.0673828125 2425.99853515625 1099.337646484375 1327.8983154296875 1152.5516357421875 850.8656616210938 328.8227844238281 0.0010000000474974513 499.4840393066406 1216.177978515625 1453.3607177734375 1019.5418701171875 496.8769836425781 365.4908142089844 1092.3544921875 98.09273529052734 346.596923828125 761.8632202148438 1117.31787109375 1572.431640625 947.8084716796875 116.74388885498047 1197.7904052734375 971.5135498046875 /
PERMY