-- Copyright (C) 2026 NORCE Research AS
-- flow MODEL8.DATA
-- pycopm -i MODEL8.DATA -w STANDARD -t 2 -a max -z 1:2 -l S 
-- pycopm -i MODEL8.DATA -w DUAL -t 2 -a max -z 1:2 -l D -dual 'poro == 0.1'
----------------------------------------------------------------------------
RUNSPEC
----------------------------------------------------------------------------
DIMENS 
3 2 2 /

EQLDIMS
/

TABDIMS
/

CO2STORE
GAS
WATER

METRIC

START
1 JAN 2025 /

WELLDIMS
/

UNIFOUT
----------------------------------------------------------------------------
GRID
----------------------------------------------------------------------------
INIT

COORD
     0   0 0      0   0 2E3
 2.5E3   0 0  2.5E3   0 2E3
   5E3   0 0    5E3   0 2E3
   7.5E3   0 0    7.5E3   0 2E3
     0 1E3 0      0 1E3 2E3
 2.5E3 1E3 0  2.5E3 1E3 2E3
   5E3 1E3 0    5E3 1E3 2E3
   7.5E3 1E3 0    7.5E3 1E3 2E3
    0 2E3 0      0 2E3 2E3
 2.5E3 2E3 0  2.5E3 2E3 2E3
   5E3 2E3 0    5E3 2E3 2E3
   7.5E3 2E3 0    7.5E3 2E3 2E3 /

ZCORN
 5E2  5E2    0  0 -5E2 -5E2  5E2  5E2    0  0 -5E2 -5E2
 5E2  5E2    -2.5E2  -2.5E2 -5E2 -5E2  5E2  5E2    -2.5E2  -2.5E2 -5E2 -5E2

15E2 15E2  7.5E2 7.5E2 2.5E2 2.5E2 15E2 15E2  7.5E2 7.5E2 2.5E2 2.5E2
15E2 15E2  5E2 5E2 2.5E2 2.5E2 15E2 15E2  5E2 5E2 2.5E2 2.5E2
 
15E2 15E2  7.5E2 7.5E2 2.5E2 2.5E2  15E2 15E2  7.5E2 7.5E2 2.5E2 2.5E2 
15E2 15E2  5E2 5E2 2.5E2 2.5E2  15E2 15E2  5E2 5E2 2.5E2 2.5E2 
15E2 15E2 10E2 10E2 10E2 10E2 15E2 15E2 10E2 10E2 10E2 10E2
15E2 15E2 10E2 10E2 10E2 10E2 15E2 15E2 10E2 10E2 10E2 10E2 /

FLUXNUM
1 2 2 0 2 0
1 1 1 0 2 0
/

EQUALREG
PORO        0 0 F /
PORO     0.25 1 F /
PORO     1e-1 2 F /
PERMX       0 0 F /
PERMX    1.172745396974317 1 F /
PERMX    1.172745396974317e-2 2 F /
PERMY       0 0 F /
PERMY    1.172745396974317 1 F /
PERMY    1.172745396974317e-2 2 F /
PERMZ       0 0 F /
PERMZ    1.172745396974317 1 F /
PERMZ    1.172745396974317e-2 2 F /
/

----------------------------------------------------------------------------
PROPS
----------------------------------------------------------------------------
SGWFN
0 0 1 0
1 1 0 0 /

ROCK
276 4.934e-05 /
----------------------------------------------------------------------------
SOLUTION
----------------------------------------------------------------------------
EQUIL
-5E2 200 0 0 0 0 1 1 0 /

RPTRST 
BASIC=2 RPORV /
----------------------------------------------------------------------------
SUMMARY
----------------------------------------------------------------------------
BPR
3 1 2 /
/
----------------------------------------------------------------------------
SCHEDULE
----------------------------------------------------------------------------
RPTRST
BASIC=2 RPORV /

SOURCE
1 1 1 WATER 1E+04 /
/
TSTEP
9131.25 /

SOURCE
1 1 1 WATER 0 /
/
TSTEP
3652.5 /
