-- This reservoir simulation deck is made available under the Open Database
-- License: http://opendatacommons.org/licenses/odbl/1.0/. Any rights in
-- individual contents of the database are licensed under the Database Contents
-- License: http://opendatacommons.org/licenses/dbcl/1.0/
-- Copyright (C) 2025 NORCE Research AS

RUNSPEC
WELLDIMS
1 1 1 1 /
START
1 JAN 2025 /
METRIC
DIMENS
3 3 217 /
EQLDIMS
/
TABDIMS
/
CO2STORE
WATER
GAS
UNIFOUT
GRID
INIT
PERMX
1953*100 /
COPY 
PERMX PERMY /
PERMX PERMZ /
/
PORO
1953*0.2 /
SPECGRID
3 3 217 1 F /
COORD
2.668188E+04 2.634705E+04 2.168167E+03 2.668188E+04 2.634705E+04 2.498176E+03 2.716364E+04 2.623804E+04 2.176892E+03 2.716364E+04 2.623804E+04 2.509311E+03 2.764070E+04 2.610131E+04 2.189725E+03 2.764070E+04 2.610131E+04 2.534156E+03 2.811738E+04 2.596042E+04 2.268703E+03 2.811738E+04 2.596042E+04 2.565896E+03 2.679135E+04 2.681205E+04 2.173141E+03 2.679135E+04 2.681205E+04 2.509853E+03 2.727245E+04 2.669992E+04 2.180669E+03 2.727245E+04 2.669992E+04 2.505712E+03 2.775266E+04 2.657747E+04 2.193613E+03 2.775266E+04 2.657747E+04 2.545666E+03 2.823173E+04 2.645011E+04 2.287853E+03 2.823173E+04 2.645011E+04 2.577507E+03 2.690086E+04 2.728348E+04 2.181889E+03 2.690086E+04 2.728348E+04 2.523480E+03 2.738214E+04 2.717211E+04 2.191502E+03 2.738214E+04 2.717211E+04 2.516065E+03 2.786405E+04 2.705696E+04 2.205246E+03 2.786405E+04 2.705696E+04 2.551135E+03 2.834502E+04 2.693788E+04 2.214619E+03 2.834502E+04 2.693788E+04 2.583069E+03 2.700985E+04 2.775858E+04 2.192771E+03 2.700985E+04 2.775858E+04 2.533065E+03 2.749121E+04 2.764803E+04 2.209047E+03 2.749121E+04 2.764803E+04 2.530006E+03 2.797174E+04 2.753714E+04 2.227891E+03 2.797174E+04 2.753714E+04 2.571313E+03 2.845407E+04 2.742113E+04 2.237429E+03 2.845407E+04 2.742113E+04 2.600767E+03 /
ZCORN
2.168170E+03 2.176890E+03 2.176890E+03 2.189720E+03 2.247340E+03 2.268700E+03 2.173140E+03 2.180670E+03 2.180670E+03 2.193610E+03 2.266440E+03 2.287850E+03 2.173140E+03 2.180670E+03 2.180670E+03 2.193610E+03 2.266440E+03 2.287850E+03 2.181890E+03 2.191500E+03 2.191500E+03 2.205250E+03 2.279640E+03 2.301280E+03 2.181890E+03 2.191500E+03 2.191500E+03 2.205250E+03 2.205250E+03 2.214620E+03 2.192770E+03 2.209050E+03 2.209050E+03 2.227890E+03 2.227890E+03 2.237430E+03 2.169170E+03 2.177890E+03 2.177890E+03 2.190720E+03 2.248340E+03 2.269700E+03 2.174140E+03 2.181670E+03 2.181670E+03 2.194610E+03 2.267440E+03 2.288850E+03 2.174140E+03 2.181670E+03 2.181670E+03 2.194610E+03 2.267440E+03 2.288850E+03 2.182890E+03 2.192500E+03 2.192500E+03 2.206250E+03 2.280640E+03 2.302280E+03 2.182890E+03 2.192500E+03 2.192500E+03 2.206250E+03 2.206250E+03 2.215620E+03 2.193770E+03 2.210050E+03 2.210050E+03 2.228890E+03 2.228890E+03 2.238430E+03 2.169170E+03 2.177890E+03 2.177890E+03 2.190720E+03 2.248340E+03 2.269700E+03 2.174140E+03 2.181670E+03 2.181670E+03 2.194610E+03 2.267440E+03 2.288850E+03 2.174140E+03 2.181670E+03 2.181670E+03 2.194610E+03 2.267440E+03 2.288850E+03 2.182890E+03 2.192500E+03 2.192500E+03 2.206250E+03 2.280640E+03 2.302280E+03 2.182890E+03 2.192500E+03 2.192500E+03 2.206250E+03 2.206250E+03 2.215620E+03 2.193770E+03 2.210050E+03 2.210050E+03 2.228890E+03 2.228890E+03 2.238430E+03 2.170170E+03 2.178890E+03 2.178890E+03 2.191720E+03 2.249340E+03 2.270700E+03 2.175140E+03 2.182670E+03 2.182670E+03 2.195610E+03 2.268440E+03 2.289850E+03 2.175140E+03 2.182670E+03 2.182670E+03 2.195610E+03 2.268440E+03 2.289850E+03 2.183890E+03 2.193500E+03 2.193500E+03 2.207250E+03 2.281640E+03 2.303280E+03 2.183890E+03 2.193500E+03 2.193500E+03 2.207250E+03 2.207250E+03 2.216620E+03 2.194770E+03 2.211050E+03 2.211050E+03 2.229890E+03 2.229890E+03 2.239430E+03 2.170170E+03 2.178890E+03 2.178890E+03 2.191720E+03 2.249340E+03 2.270700E+03 2.175140E+03 2.182670E+03 2.182670E+03 2.195610E+03 2.268440E+03 2.289850E+03 2.175140E+03 2.182670E+03 2.182670E+03 2.195610E+03 2.268440E+03 2.289850E+03 2.183890E+03 2.193500E+03 2.193500E+03 2.207250E+03 2.281640E+03 2.303280E+03 2.183890E+03 2.193500E+03 2.193500E+03 2.207250E+03 2.207250E+03 2.216620E+03 2.194770E+03 2.211050E+03 2.211050E+03 2.229890E+03 2.229890E+03 2.239430E+03 2.171170E+03 2.179890E+03 2.179890E+03 2.192720E+03 2.250340E+03 2.271700E+03 2.176140E+03 2.183670E+03 2.183670E+03 2.196610E+03 2.269440E+03 2.290850E+03 2.176140E+03 2.183670E+03 2.183670E+03 2.196610E+03 2.269440E+03 2.290850E+03 2.184890E+03 2.194500E+03 2.194500E+03 2.208250E+03 2.282640E+03 2.304280E+03 2.184890E+03 2.194500E+03 2.194500E+03 2.208250E+03 2.208250E+03 2.217620E+03 2.195770E+03 2.212050E+03 2.212050E+03 2.230890E+03 2.230890E+03 2.240430E+03 2.171170E+03 2.179890E+03 2.179890E+03 2.192720E+03 2.250340E+03 2.271700E+03 2.176140E+03 2.183670E+03 2.183670E+03 2.196610E+03 2.269440E+03 2.290850E+03 2.176140E+03 2.183670E+03 2.183670E+03 2.196610E+03 2.269440E+03 2.290850E+03 2.184890E+03 2.194500E+03 2.194500E+03 2.208250E+03 2.282640E+03 2.304280E+03 2.184890E+03 2.194500E+03 2.194500E+03 2.208250E+03 2.208250E+03 2.217620E+03 2.195770E+03 2.212050E+03 2.212050E+03 2.230890E+03 2.230890E+03 2.240430E+03 2.172170E+03 2.180890E+03 2.180890E+03 2.193720E+03 2.251340E+03 2.272700E+03 2.177140E+03 2.184670E+03 2.184670E+03 2.197610E+03 2.270440E+03 2.291850E+03 2.177140E+03 2.184670E+03 2.184670E+03 2.197610E+03 2.270440E+03 2.291850E+03 2.185890E+03 2.195500E+03 2.195500E+03 2.209250E+03 2.283640E+03 2.305280E+03 2.185890E+03 2.195500E+03 2.195500E+03 2.209250E+03 2.209250E+03 2.218620E+03 2.196770E+03 2.213050E+03 2.213050E+03 2.231890E+03 2.231890E+03 2.241430E+03 2.172170E+03 2.180890E+03 2.180890E+03 2.193720E+03 2.251340E+03 2.272700E+03 2.177140E+03 2.184670E+03 2.184670E+03 2.197610E+03 2.270440E+03 2.291850E+03 2.177140E+03 2.184670E+03 2.184670E+03 2.197610E+03 2.270440E+03 2.291850E+03 2.185890E+03 2.195500E+03 2.195500E+03 2.209250E+03 2.283640E+03 2.305280E+03 2.185890E+03 2.195500E+03 2.195500E+03 2.209250E+03 2.209250E+03 2.218620E+03 2.196770E+03 2.213050E+03 2.213050E+03 2.231890E+03 2.231890E+03 2.241430E+03 2.173170E+03 2.181890E+03 2.181890E+03 2.194720E+03 2.252340E+03 2.273700E+03 2.178140E+03 2.185670E+03 2.185670E+03 2.198610E+03 2.271440E+03 2.292850E+03 2.178140E+03 2.185670E+03 2.185670E+03 2.198610E+03 2.271440E+03 2.292850E+03 2.186890E+03 2.196500E+03 2.196500E+03 2.210250E+03 2.284640E+03 2.306280E+03 2.186890E+03 2.196500E+03 2.196500E+03 2.210250E+03 2.210250E+03 2.219620E+03 2.197770E+03 2.214050E+03 2.214050E+03 2.232890E+03 2.232890E+03 2.242430E+03 2.173170E+03 2.181890E+03 2.181890E+03 2.194720E+03 2.252340E+03 2.273700E+03 2.178140E+03 2.185670E+03 2.185670E+03 2.198610E+03 2.271440E+03 2.292850E+03 2.178140E+03 2.185670E+03 2.185670E+03 2.198610E+03 2.271440E+03 2.292850E+03 2.186890E+03 2.196500E+03 2.196500E+03 2.210250E+03 2.284640E+03 2.306280E+03 2.186890E+03 2.196500E+03 2.196500E+03 2.210250E+03 2.210250E+03 2.219620E+03 2.197770E+03 2.214050E+03 2.214050E+03 2.232890E+03 2.232890E+03 2.242430E+03 2.174170E+03 2.182890E+03 2.182890E+03 2.195720E+03 2.253340E+03 2.274700E+03 2.179140E+03 2.186670E+03 2.186670E+03 2.199610E+03 2.272440E+03 2.293850E+03 2.179140E+03 2.186670E+03 2.186670E+03 2.199610E+03 2.272440E+03 2.293850E+03 2.187890E+03 2.197500E+03 2.197500E+03 2.211250E+03 2.285640E+03 2.307280E+03 2.187890E+03 2.197500E+03 2.197500E+03 2.211250E+03 2.211250E+03 2.220620E+03 2.198770E+03 2.215050E+03 2.215050E+03 2.233890E+03 2.233890E+03 2.243430E+03 2.174170E+03 2.182890E+03 2.182890E+03 2.195720E+03 2.253340E+03 2.274700E+03 2.179140E+03 2.186670E+03 2.186670E+03 2.199610E+03 2.272440E+03 2.293850E+03 2.179140E+03 2.186670E+03 2.186670E+03 2.199610E+03 2.272440E+03 2.293850E+03 2.187890E+03 2.197500E+03 2.197500E+03 2.211250E+03 2.285640E+03 2.307280E+03 2.187890E+03 2.197500E+03 2.197500E+03 2.211250E+03 2.211250E+03 2.220620E+03 2.198770E+03 2.215050E+03 2.215050E+03 2.233890E+03 2.233890E+03 2.243430E+03 2.175170E+03 2.183890E+03 2.183890E+03 2.196720E+03 2.254340E+03 2.275700E+03 2.180140E+03 2.187670E+03 2.187670E+03 2.200610E+03 2.273440E+03 2.294850E+03 2.180140E+03 2.187670E+03 2.187670E+03 2.200610E+03 2.273440E+03 2.294850E+03 2.188890E+03 2.198500E+03 2.198500E+03 2.212250E+03 2.286640E+03 2.308280E+03 2.188890E+03 2.198500E+03 2.198500E+03 2.212250E+03 2.212250E+03 2.221620E+03 2.199770E+03 2.216050E+03 2.216050E+03 2.234890E+03 2.234890E+03 2.244430E+03 2.175170E+03 2.183890E+03 2.183890E+03 2.196720E+03 2.254340E+03 2.275700E+03 2.180140E+03 2.187670E+03 2.187670E+03 2.200610E+03 2.273440E+03 2.294850E+03 2.180140E+03 2.187670E+03 2.187670E+03 2.200610E+03 2.273440E+03 2.294850E+03 2.188890E+03 2.198500E+03 2.198500E+03 2.212250E+03 2.286640E+03 2.308280E+03 2.188890E+03 2.198500E+03 2.198500E+03 2.212250E+03 2.212250E+03 2.221620E+03 2.199770E+03 2.216050E+03 2.216050E+03 2.234890E+03 2.234890E+03 2.244430E+03 2.176170E+03 2.184890E+03 2.184890E+03 2.197720E+03 2.255340E+03 2.276700E+03 2.181140E+03 2.188670E+03 2.188670E+03 2.201610E+03 2.274440E+03 2.295850E+03 2.181140E+03 2.188670E+03 2.188670E+03 2.201610E+03 2.274440E+03 2.295850E+03 2.189890E+03 2.199500E+03 2.199500E+03 2.213250E+03 2.287640E+03 2.309280E+03 2.189890E+03 2.199500E+03 2.199500E+03 2.213250E+03 2.213250E+03 2.222620E+03 2.200770E+03 2.217050E+03 2.217050E+03 2.235890E+03 2.235890E+03 2.245430E+03 2.176170E+03 2.184890E+03 2.184890E+03 2.197720E+03 2.255340E+03 2.276700E+03 2.181140E+03 2.188670E+03 2.188670E+03 2.201610E+03 2.274440E+03 2.295850E+03 2.181140E+03 2.188670E+03 2.188670E+03 2.201610E+03 2.274440E+03 2.295850E+03 2.189890E+03 2.199500E+03 2.199500E+03 2.213250E+03 2.287640E+03 2.309280E+03 2.189890E+03 2.199500E+03 2.199500E+03 2.213250E+03 2.213250E+03 2.222620E+03 2.200770E+03 2.217050E+03 2.217050E+03 2.235890E+03 2.235890E+03 2.245430E+03 2.177170E+03 2.185890E+03 2.185890E+03 2.198720E+03 2.256340E+03 2.277700E+03 2.182140E+03 2.189670E+03 2.189670E+03 2.202610E+03 2.275440E+03 2.296850E+03 2.182140E+03 2.189670E+03 2.189670E+03 2.202610E+03 2.275440E+03 2.296850E+03 2.190890E+03 2.200500E+03 2.200500E+03 2.214250E+03 2.288640E+03 2.310280E+03 2.190890E+03 2.200500E+03 2.200500E+03 2.214250E+03 2.214250E+03 2.223620E+03 2.201890E+03 2.218050E+03 2.218050E+03 2.236890E+03 2.236890E+03 2.246430E+03 2.177170E+03 2.185890E+03 2.185890E+03 2.198720E+03 2.256340E+03 2.277700E+03 2.182140E+03 2.189670E+03 2.189670E+03 2.202610E+03 2.275440E+03 2.296850E+03 2.182140E+03 2.189670E+03 2.189670E+03 2.202610E+03 2.275440E+03 2.296850E+03 2.190890E+03 2.200500E+03 2.200500E+03 2.214250E+03 2.288640E+03 2.310280E+03 2.190890E+03 2.200500E+03 2.200500E+03 2.214250E+03 2.214250E+03 2.223620E+03 2.201890E+03 2.218050E+03 2.218050E+03 2.236890E+03 2.236890E+03 2.246430E+03 2.178170E+03 2.186890E+03 2.186890E+03 2.199720E+03 2.257340E+03 2.278700E+03 2.183140E+03 2.190670E+03 2.190670E+03 2.203610E+03 2.276440E+03 2.297850E+03 2.183140E+03 2.190670E+03 2.190670E+03 2.203610E+03 2.276440E+03 2.297850E+03 2.191890E+03 2.201500E+03 2.201500E+03 2.215250E+03 2.290430E+03 2.311280E+03 2.191890E+03 2.201500E+03 2.201500E+03 2.215250E+03 2.215250E+03 2.224620E+03 2.201890E+03 2.219050E+03 2.219050E+03 2.237890E+03 2.237890E+03 2.247430E+03 2.178170E+03 2.186890E+03 2.186890E+03 2.199720E+03 2.257340E+03 2.278700E+03 2.183140E+03 2.190670E+03 2.190670E+03 2.203610E+03 2.276440E+03 2.297850E+03 2.183140E+03 2.190670E+03 2.190670E+03 2.203610E+03 2.276440E+03 2.297850E+03 2.191890E+03 2.201500E+03 2.201500E+03 2.215250E+03 2.290430E+03 2.311280E+03 2.191890E+03 2.201500E+03 2.201500E+03 2.215250E+03 2.215250E+03 2.224620E+03 2.201890E+03 2.219050E+03 2.219050E+03 2.237890E+03 2.237890E+03 2.247430E+03 2.179170E+03 2.187890E+03 2.187890E+03 2.200720E+03 2.258340E+03 2.279700E+03 2.184140E+03 2.191670E+03 2.191670E+03 2.204610E+03 2.278400E+03 2.298850E+03 2.184140E+03 2.191670E+03 2.191670E+03 2.204610E+03 2.278400E+03 2.298850E+03 2.193080E+03 2.202500E+03 2.202500E+03 2.216250E+03 2.290430E+03 2.312280E+03 2.193080E+03 2.202500E+03 2.202500E+03 2.216250E+03 2.216250E+03 2.225620E+03 2.201890E+03 2.220310E+03 2.220310E+03 2.238890E+03 2.238890E+03 2.248430E+03 2.179170E+03 2.187890E+03 2.187890E+03 2.200720E+03 2.258340E+03 2.279700E+03 2.184140E+03 2.191670E+03 2.191670E+03 2.204610E+03 2.278400E+03 2.298850E+03 2.184140E+03 2.191670E+03 2.191670E+03 2.204610E+03 2.278400E+03 2.298850E+03 2.193080E+03 2.202500E+03 2.202500E+03 2.216250E+03 2.290430E+03 2.312280E+03 2.193080E+03 2.202500E+03 2.202500E+03 2.216250E+03 2.216250E+03 2.225620E+03 2.201890E+03 2.220310E+03 2.220310E+03 2.238890E+03 2.238890E+03 2.248430E+03 2.180170E+03 2.188890E+03 2.188890E+03 2.201720E+03 2.259340E+03 2.280700E+03 2.185140E+03 2.192670E+03 2.192670E+03 2.205610E+03 2.278400E+03 2.299850E+03 2.185140E+03 2.192670E+03 2.192670E+03 2.205610E+03 2.278400E+03 2.299850E+03 2.193080E+03 2.203500E+03 2.203500E+03 2.217250E+03 2.290430E+03 2.313930E+03 2.193080E+03 2.203500E+03 2.203500E+03 2.217250E+03 2.217250E+03 2.226620E+03 2.201890E+03 2.220310E+03 2.220310E+03 2.239890E+03 2.239890E+03 2.249430E+03 2.180170E+03 2.188890E+03 2.188890E+03 2.201720E+03 2.259340E+03 2.280700E+03 2.185140E+03 2.192670E+03 2.192670E+03 2.205610E+03 2.278400E+03 2.299850E+03 2.185140E+03 2.192670E+03 2.192670E+03 2.205610E+03 2.278400E+03 2.299850E+03 2.193080E+03 2.203500E+03 2.203500E+03 2.217250E+03 2.290430E+03 2.313930E+03 2.193080E+03 2.203500E+03 2.203500E+03 2.217250E+03 2.217250E+03 2.226620E+03 2.201890E+03 2.220310E+03 2.220310E+03 2.239890E+03 2.239890E+03 2.249430E+03 2.181170E+03 2.189890E+03 2.189890E+03 2.202720E+03 2.260380E+03 2.281700E+03 2.187030E+03 2.193670E+03 2.193670E+03 2.206610E+03 2.278400E+03 2.301680E+03 2.187030E+03 2.193670E+03 2.193670E+03 2.206610E+03 2.278400E+03 2.301680E+03 2.193080E+03 2.205010E+03 2.205010E+03 2.218250E+03 2.290430E+03 2.313930E+03 2.193080E+03 2.205010E+03 2.205010E+03 2.218250E+03 2.218250E+03 2.227620E+03 2.201890E+03 2.220310E+03 2.220310E+03 2.241450E+03 2.241450E+03 2.250430E+03 2.181170E+03 2.189890E+03 2.189890E+03 2.202720E+03 2.260380E+03 2.281700E+03 2.187030E+03 2.193670E+03 2.193670E+03 2.206610E+03 2.278400E+03 2.301680E+03 2.187030E+03 2.193670E+03 2.193670E+03 2.206610E+03 2.278400E+03 2.301680E+03 2.193080E+03 2.205010E+03 2.205010E+03 2.218250E+03 2.290430E+03 2.313930E+03 2.193080E+03 2.205010E+03 2.205010E+03 2.218250E+03 2.218250E+03 2.227620E+03 2.201890E+03 2.220310E+03 2.220310E+03 2.241450E+03 2.241450E+03 2.250430E+03 2.182170E+03 2.190890E+03 2.190890E+03 2.203720E+03 2.260380E+03 2.283410E+03 2.187030E+03 2.194670E+03 2.194670E+03 2.207610E+03 2.278400E+03 2.301680E+03 2.187030E+03 2.194670E+03 2.194670E+03 2.207610E+03 2.278400E+03 2.301680E+03 2.193080E+03 2.205010E+03 2.205010E+03 2.219250E+03 2.290430E+03 2.313930E+03 2.193080E+03 2.205010E+03 2.205010E+03 2.219250E+03 2.219250E+03 2.228620E+03 2.201890E+03 2.220310E+03 2.220310E+03 2.241450E+03 2.241450E+03 2.251430E+03 2.182170E+03 2.190890E+03 2.190890E+03 2.203720E+03 2.260380E+03 2.283410E+03 2.187030E+03 2.194670E+03 2.194670E+03 2.207610E+03 2.278400E+03 2.301680E+03 2.187030E+03 2.194670E+03 2.194670E+03 2.207610E+03 2.278400E+03 2.301680E+03 2.193080E+03 2.205010E+03 2.205010E+03 2.219250E+03 2.290430E+03 2.313930E+03 2.193080E+03 2.205010E+03 2.205010E+03 2.219250E+03 2.219250E+03 2.228620E+03 2.201890E+03 2.220310E+03 2.220310E+03 2.241450E+03 2.241450E+03 2.251430E+03 2.183220E+03 2.191890E+03 2.191890E+03 2.204720E+03 2.260380E+03 2.283410E+03 2.187030E+03 2.196400E+03 2.196400E+03 2.208610E+03 2.278400E+03 2.301680E+03 2.187030E+03 2.196400E+03 2.196400E+03 2.208610E+03 2.278400E+03 2.301680E+03 2.193080E+03 2.205010E+03 2.205010E+03 2.220950E+03 2.290430E+03 2.313930E+03 2.193080E+03 2.205010E+03 2.205010E+03 2.220950E+03 2.220950E+03 2.229620E+03 2.201890E+03 2.220310E+03 2.220310E+03 2.241450E+03 2.241450E+03 2.252430E+03 2.183220E+03 2.191890E+03 2.191890E+03 2.204720E+03 2.260380E+03 2.283410E+03 2.187030E+03 2.196400E+03 2.196400E+03 2.208610E+03 2.278400E+03 2.301680E+03 2.187030E+03 2.196400E+03 2.196400E+03 2.208610E+03 2.278400E+03 2.301680E+03 2.193080E+03 2.205010E+03 2.205010E+03 2.220950E+03 2.290430E+03 2.313930E+03 2.193080E+03 2.205010E+03 2.205010E+03 2.220950E+03 2.220950E+03 2.229620E+03 2.201890E+03 2.220310E+03 2.220310E+03 2.241450E+03 2.241450E+03 2.252430E+03 2.183220E+03 2.193320E+03 2.193320E+03 2.205720E+03 2.260380E+03 2.283410E+03 2.187030E+03 2.196400E+03 2.196400E+03 2.209610E+03 2.278400E+03 2.301680E+03 2.187030E+03 2.196400E+03 2.196400E+03 2.209610E+03 2.278400E+03 2.301680E+03 2.193080E+03 2.205010E+03 2.205010E+03 2.220950E+03 2.290430E+03 2.313930E+03 2.193080E+03 2.205010E+03 2.205010E+03 2.220950E+03 2.220950E+03 2.230620E+03 2.201890E+03 2.220310E+03 2.220310E+03 2.241450E+03 2.241450E+03 2.253700E+03 2.183220E+03 2.193320E+03 2.193320E+03 2.205720E+03 2.260380E+03 2.283410E+03 2.187030E+03 2.196400E+03 2.196400E+03 2.209610E+03 2.278400E+03 2.301680E+03 2.187030E+03 2.196400E+03 2.196400E+03 2.209610E+03 2.278400E+03 2.301680E+03 2.193080E+03 2.205010E+03 2.205010E+03 2.220950E+03 2.290430E+03 2.313930E+03 2.193080E+03 2.205010E+03 2.205010E+03 2.220950E+03 2.220950E+03 2.230620E+03 2.201890E+03 2.220310E+03 2.220310E+03 2.241450E+03 2.241450E+03 2.253700E+03 2.183220E+03 2.193320E+03 2.193320E+03 2.207460E+03 2.260380E+03 2.283410E+03 2.187030E+03 2.196400E+03 2.196400E+03 2.210620E+03 2.278400E+03 2.301680E+03 2.187030E+03 2.196400E+03 2.196400E+03 2.210620E+03 2.278400E+03 2.301680E+03 2.193080E+03 2.205010E+03 2.205010E+03 2.220950E+03 2.290430E+03 2.313930E+03 2.193080E+03 2.205010E+03 2.205010E+03 2.220950E+03 2.220950E+03 2.231620E+03 2.201890E+03 2.220310E+03 2.220310E+03 2.241450E+03 2.241450E+03 2.253700E+03 2.183220E+03 2.193320E+03 2.193320E+03 2.207460E+03 2.260380E+03 2.283410E+03 2.187030E+03 2.196400E+03 2.196400E+03 2.210620E+03 2.278400E+03 2.301680E+03 2.187030E+03 2.196400E+03 2.196400E+03 2.210620E+03 2.278400E+03 2.301680E+03 2.193080E+03 2.205010E+03 2.205010E+03 2.220950E+03 2.290430E+03 2.313930E+03 2.193080E+03 2.205010E+03 2.205010E+03 2.220950E+03 2.220950E+03 2.231620E+03 2.201890E+03 2.220310E+03 2.220310E+03 2.241450E+03 2.241450E+03 2.253700E+03 2.183220E+03 2.193320E+03 2.193320E+03 2.207460E+03 2.260380E+03 2.283410E+03 2.187030E+03 2.196400E+03 2.196400E+03 2.210620E+03 2.278400E+03 2.301680E+03 2.187030E+03 2.196400E+03 2.196400E+03 2.210620E+03 2.278400E+03 2.301680E+03 2.193080E+03 2.205010E+03 2.205010E+03 2.220950E+03 2.290430E+03 2.313930E+03 2.193080E+03 2.205010E+03 2.205010E+03 2.220950E+03 2.220950E+03 2.233060E+03 2.201890E+03 2.220310E+03 2.220310E+03 2.241450E+03 2.241450E+03 2.253700E+03 2.183220E+03 2.193320E+03 2.193320E+03 2.207460E+03 2.260380E+03 2.283410E+03 2.187030E+03 2.196400E+03 2.196400E+03 2.210620E+03 2.278400E+03 2.301680E+03 2.187030E+03 2.196400E+03 2.196400E+03 2.210620E+03 2.278400E+03 2.301680E+03 2.193080E+03 2.205010E+03 2.205010E+03 2.220950E+03 2.290430E+03 2.313930E+03 2.193080E+03 2.205010E+03 2.205010E+03 2.220950E+03 2.220950E+03 2.233060E+03 2.201890E+03 2.220310E+03 2.220310E+03 2.241450E+03 2.241450E+03 2.253700E+03 2.183220E+03 2.193320E+03 2.193320E+03 2.207460E+03 2.260380E+03 2.283410E+03 2.187030E+03 2.196400E+03 2.196400E+03 2.210620E+03 2.278400E+03 2.301680E+03 2.187030E+03 2.196400E+03 2.196400E+03 2.210620E+03 2.278400E+03 2.301680E+03 2.193080E+03 2.205010E+03 2.205010E+03 2.220950E+03 2.290430E+03 2.313930E+03 2.193080E+03 2.205010E+03 2.205010E+03 2.220950E+03 2.220950E+03 2.233060E+03 2.201890E+03 2.220310E+03 2.220310E+03 2.241450E+03 2.241450E+03 2.253700E+03 2.183220E+03 2.193320E+03 2.193320E+03 2.207460E+03 2.260380E+03 2.283410E+03 2.187030E+03 2.196400E+03 2.196400E+03 2.210620E+03 2.278400E+03 2.301680E+03 2.187030E+03 2.196400E+03 2.196400E+03 2.210620E+03 2.278400E+03 2.301680E+03 2.193080E+03 2.205010E+03 2.205010E+03 2.220950E+03 2.290430E+03 2.313930E+03 2.193080E+03 2.205010E+03 2.205010E+03 2.220950E+03 2.220950E+03 2.233060E+03 2.201890E+03 2.220310E+03 2.220310E+03 2.241450E+03 2.241450E+03 2.253700E+03 2.183220E+03 2.193320E+03 2.193320E+03 2.207460E+03 2.260380E+03 2.283410E+03 2.187030E+03 2.196400E+03 2.196400E+03 2.210620E+03 2.278400E+03 2.301680E+03 2.187030E+03 2.196400E+03 2.196400E+03 2.210620E+03 2.278400E+03 2.301680E+03 2.193080E+03 2.205010E+03 2.205010E+03 2.220950E+03 2.290430E+03 2.313930E+03 2.193080E+03 2.205010E+03 2.205010E+03 2.220950E+03 2.220950E+03 2.233060E+03 2.201890E+03 2.220310E+03 2.220310E+03 2.241450E+03 2.241450E+03 2.253700E+03 2.183220E+03 2.193320E+03 2.193320E+03 2.207460E+03 2.260380E+03 2.283410E+03 2.187030E+03 2.196400E+03 2.196400E+03 2.210620E+03 2.278400E+03 2.301680E+03 2.187030E+03 2.196400E+03 2.196400E+03 2.210620E+03 2.278400E+03 2.301680E+03 2.193080E+03 2.205010E+03 2.205010E+03 2.220950E+03 2.290430E+03 2.313930E+03 2.193080E+03 2.205010E+03 2.205010E+03 2.220950E+03 2.220950E+03 2.233060E+03 2.201890E+03 2.220310E+03 2.220310E+03 2.241450E+03 2.241450E+03 2.253700E+03 2.183220E+03 2.193320E+03 2.193320E+03 2.207460E+03 2.260380E+03 2.283410E+03 2.187030E+03 2.196400E+03 2.196400E+03 2.210620E+03 2.278400E+03 2.301680E+03 2.187030E+03 2.196400E+03 2.196400E+03 2.210620E+03 2.278400E+03 2.301680E+03 2.193080E+03 2.205010E+03 2.205010E+03 2.220950E+03 2.290430E+03 2.313930E+03 2.193080E+03 2.205010E+03 2.205010E+03 2.220950E+03 2.220950E+03 2.233060E+03 2.201890E+03 2.220310E+03 2.220310E+03 2.241450E+03 2.241450E+03 2.253700E+03 2.183220E+03 2.193320E+03 2.193320E+03 2.207460E+03 2.260380E+03 2.283410E+03 2.187030E+03 2.196400E+03 2.196400E+03 2.210620E+03 2.278400E+03 2.301680E+03 2.187030E+03 2.196400E+03 2.196400E+03 2.210620E+03 2.278400E+03 2.301680E+03 2.193080E+03 2.205010E+03 2.205010E+03 2.220950E+03 2.290430E+03 2.313930E+03 2.193080E+03 2.205010E+03 2.205010E+03 2.220950E+03 2.220950E+03 2.233060E+03 2.201890E+03 2.220310E+03 2.220310E+03 2.241450E+03 2.241450E+03 2.253700E+03 2.183220E+03 2.193320E+03 2.193320E+03 2.207460E+03 2.260380E+03 2.283410E+03 2.187030E+03 2.196400E+03 2.196400E+03 2.210620E+03 2.278400E+03 2.301680E+03 2.187030E+03 2.196400E+03 2.196400E+03 2.210620E+03 2.278400E+03 2.301680E+03 2.193080E+03 2.205010E+03 2.205010E+03 2.220950E+03 2.290430E+03 2.313930E+03 2.193080E+03 2.205010E+03 2.205010E+03 2.220950E+03 2.220950E+03 2.233060E+03 2.201890E+03 2.220310E+03 2.220310E+03 2.241450E+03 2.241450E+03 2.253700E+03 2.183220E+03 2.193320E+03 2.193320E+03 2.207460E+03 2.260380E+03 2.283410E+03 2.187030E+03 2.196400E+03 2.196400E+03 2.210620E+03 2.278400E+03 2.301680E+03 2.187030E+03 2.196400E+03 2.196400E+03 2.210620E+03 2.278400E+03 2.301680E+03 2.193080E+03 2.205010E+03 2.205010E+03 2.220950E+03 2.290430E+03 2.313930E+03 2.193080E+03 2.205010E+03 2.205010E+03 2.220950E+03 2.220950E+03 2.233060E+03 2.201890E+03 2.220310E+03 2.220310E+03 2.241450E+03 2.241450E+03 2.253700E+03 2.183220E+03 2.193320E+03 2.193320E+03 2.207460E+03 2.260380E+03 2.283410E+03 2.187030E+03 2.196400E+03 2.196400E+03 2.210620E+03 2.278400E+03 2.301680E+03 2.187030E+03 2.196400E+03 2.196400E+03 2.210620E+03 2.278400E+03 2.301680E+03 2.193080E+03 2.205010E+03 2.205010E+03 2.220950E+03 2.290430E+03 2.313930E+03 2.193080E+03 2.205010E+03 2.205010E+03 2.220950E+03 2.220950E+03 2.233060E+03 2.201890E+03 2.220310E+03 2.220310E+03 2.241450E+03 2.241450E+03 2.253700E+03 2.183220E+03 2.193320E+03 2.193320E+03 2.207460E+03 2.260380E+03 2.283410E+03 2.187030E+03 2.196400E+03 2.196400E+03 2.210620E+03 2.278400E+03 2.301680E+03 2.187030E+03 2.196400E+03 2.196400E+03 2.210620E+03 2.278400E+03 2.301680E+03 2.193080E+03 2.205010E+03 2.205010E+03 2.220950E+03 2.290430E+03 2.313930E+03 2.193080E+03 2.205010E+03 2.205010E+03 2.220950E+03 2.220950E+03 2.233060E+03 2.201890E+03 2.220310E+03 2.220310E+03 2.241450E+03 2.241450E+03 2.253700E+03 2.183220E+03 2.193320E+03 2.193320E+03 2.207460E+03 2.260380E+03 2.283410E+03 2.187030E+03 2.196400E+03 2.196400E+03 2.210620E+03 2.278400E+03 2.301680E+03 2.187030E+03 2.196400E+03 2.196400E+03 2.210620E+03 2.278400E+03 2.301680E+03 2.193080E+03 2.205010E+03 2.205010E+03 2.220950E+03 2.290430E+03 2.313930E+03 2.193080E+03 2.205010E+03 2.205010E+03 2.220950E+03 2.220950E+03 2.233060E+03 2.201890E+03 2.220310E+03 2.220310E+03 2.241450E+03 2.241450E+03 2.253700E+03 2.183220E+03 2.193320E+03 2.193320E+03 2.207460E+03 2.260380E+03 2.283410E+03 2.187030E+03 2.196400E+03 2.196400E+03 2.210620E+03 2.278400E+03 2.301680E+03 2.187030E+03 2.196400E+03 2.196400E+03 2.210620E+03 2.278400E+03 2.301680E+03 2.193080E+03 2.205010E+03 2.205010E+03 2.220950E+03 2.290430E+03 2.313930E+03 2.193080E+03 2.205010E+03 2.205010E+03 2.220950E+03 2.220950E+03 2.233060E+03 2.201890E+03 2.220310E+03 2.220310E+03 2.241450E+03 2.241450E+03 2.253700E+03 2.183220E+03 2.193320E+03 2.193320E+03 2.207460E+03 2.260380E+03 2.283410E+03 2.187030E+03 2.196400E+03 2.196400E+03 2.210620E+03 2.278400E+03 2.301680E+03 2.187030E+03 2.196400E+03 2.196400E+03 2.210620E+03 2.278400E+03 2.301680E+03 2.193080E+03 2.205010E+03 2.205010E+03 2.220950E+03 2.290430E+03 2.313930E+03 2.193080E+03 2.205010E+03 2.205010E+03 2.220950E+03 2.220950E+03 2.233060E+03 2.201890E+03 2.220310E+03 2.220310E+03 2.241450E+03 2.241450E+03 2.253700E+03 2.183220E+03 2.193320E+03 2.193320E+03 2.207460E+03 2.260380E+03 2.283410E+03 2.187030E+03 2.196400E+03 2.196400E+03 2.210620E+03 2.278400E+03 2.301680E+03 2.187030E+03 2.196400E+03 2.196400E+03 2.210620E+03 2.278400E+03 2.301680E+03 2.193080E+03 2.205010E+03 2.205010E+03 2.220950E+03 2.290430E+03 2.313930E+03 2.193080E+03 2.205010E+03 2.205010E+03 2.220950E+03 2.220950E+03 2.233060E+03 2.201890E+03 2.220310E+03 2.220310E+03 2.241450E+03 2.241450E+03 2.253700E+03 2.183220E+03 2.193320E+03 2.193320E+03 2.207460E+03 2.260380E+03 2.283410E+03 2.187030E+03 2.196400E+03 2.196400E+03 2.210620E+03 2.278400E+03 2.301680E+03 2.187030E+03 2.196400E+03 2.196400E+03 2.210620E+03 2.278400E+03 2.301680E+03 2.193080E+03 2.205010E+03 2.205010E+03 2.220950E+03 2.290430E+03 2.313930E+03 2.193080E+03 2.205010E+03 2.205010E+03 2.220950E+03 2.220950E+03 2.233060E+03 2.201890E+03 2.220310E+03 2.220310E+03 2.241450E+03 2.241450E+03 2.253700E+03 2.183220E+03 2.193320E+03 2.193320E+03 2.207460E+03 2.260380E+03 2.283410E+03 2.187030E+03 2.196400E+03 2.196400E+03 2.210620E+03 2.278400E+03 2.301680E+03 2.187030E+03 2.196400E+03 2.196400E+03 2.210620E+03 2.278400E+03 2.301680E+03 2.193080E+03 2.205010E+03 2.205010E+03 2.220950E+03 2.290430E+03 2.313930E+03 2.193080E+03 2.205010E+03 2.205010E+03 2.220950E+03 2.220950E+03 2.233060E+03 2.201890E+03 2.220310E+03 2.220310E+03 2.241450E+03 2.241450E+03 2.253700E+03 2.183220E+03 2.193320E+03 2.193320E+03 2.207460E+03 2.260380E+03 2.283410E+03 2.187030E+03 2.196400E+03 2.196400E+03 2.210620E+03 2.278400E+03 2.301680E+03 2.187030E+03 2.196400E+03 2.196400E+03 2.210620E+03 2.278400E+03 2.301680E+03 2.193080E+03 2.205010E+03 2.205010E+03 2.220950E+03 2.290430E+03 2.313930E+03 2.193080E+03 2.205010E+03 2.205010E+03 2.220950E+03 2.220950E+03 2.233060E+03 2.201890E+03 2.220310E+03 2.220310E+03 2.241450E+03 2.241450E+03 2.253700E+03 2.183220E+03 2.193320E+03 2.193320E+03 2.207460E+03 2.260380E+03 2.283410E+03 2.187030E+03 2.196400E+03 2.196400E+03 2.210620E+03 2.278400E+03 2.301680E+03 2.187030E+03 2.196400E+03 2.196400E+03 2.210620E+03 2.278400E+03 2.301680E+03 2.193080E+03 2.205010E+03 2.205010E+03 2.220950E+03 2.290430E+03 2.313930E+03 2.193080E+03 2.205010E+03 2.205010E+03 2.220950E+03 2.220950E+03 2.233060E+03 2.201890E+03 2.220310E+03 2.220310E+03 2.241450E+03 2.241450E+03 2.253700E+03 2.183220E+03 2.193320E+03 2.193320E+03 2.207460E+03 2.260380E+03 2.283410E+03 2.187030E+03 2.196400E+03 2.196400E+03 2.210620E+03 2.278400E+03 2.301680E+03 2.187030E+03 2.196400E+03 2.196400E+03 2.210620E+03 2.278400E+03 2.301680E+03 2.193080E+03 2.205010E+03 2.205010E+03 2.220950E+03 2.290430E+03 2.313930E+03 2.193080E+03 2.205010E+03 2.205010E+03 2.220950E+03 2.220950E+03 2.233060E+03 2.201890E+03 2.220310E+03 2.220310E+03 2.241450E+03 2.241450E+03 2.253700E+03 2.183220E+03 2.193320E+03 2.193320E+03 2.207460E+03 2.260380E+03 2.283410E+03 2.187030E+03 2.196400E+03 2.196400E+03 2.210620E+03 2.278400E+03 2.301680E+03 2.187030E+03 2.196400E+03 2.196400E+03 2.210620E+03 2.278400E+03 2.301680E+03 2.193080E+03 2.205010E+03 2.205010E+03 2.220950E+03 2.290430E+03 2.313930E+03 2.193080E+03 2.205010E+03 2.205010E+03 2.220950E+03 2.220950E+03 2.233060E+03 2.201890E+03 2.220310E+03 2.220310E+03 2.241450E+03 2.241450E+03 2.253700E+03 2.183220E+03 2.193320E+03 2.193320E+03 2.207460E+03 2.260380E+03 2.283410E+03 2.187030E+03 2.196400E+03 2.196400E+03 2.210620E+03 2.278400E+03 2.301680E+03 2.187030E+03 2.196400E+03 2.196400E+03 2.210620E+03 2.278400E+03 2.301680E+03 2.193080E+03 2.205010E+03 2.205010E+03 2.220950E+03 2.290430E+03 2.313930E+03 2.193080E+03 2.205010E+03 2.205010E+03 2.220950E+03 2.220950E+03 2.233060E+03 2.201890E+03 2.220310E+03 2.220310E+03 2.241450E+03 2.241450E+03 2.253700E+03 2.183220E+03 2.193320E+03 2.193320E+03 2.207460E+03 2.260380E+03 2.283410E+03 2.187030E+03 2.196400E+03 2.196400E+03 2.210620E+03 2.278400E+03 2.301680E+03 2.187030E+03 2.196400E+03 2.196400E+03 2.210620E+03 2.278400E+03 2.301680E+03 2.193080E+03 2.205010E+03 2.205010E+03 2.220950E+03 2.290430E+03 2.313930E+03 2.193080E+03 2.205010E+03 2.205010E+03 2.220950E+03 2.220950E+03 2.233060E+03 2.201890E+03 2.220310E+03 2.220310E+03 2.241450E+03 2.241450E+03 2.253700E+03 2.183220E+03 2.193320E+03 2.193320E+03 2.207460E+03 2.260380E+03 2.283410E+03 2.187030E+03 2.196400E+03 2.196400E+03 2.210620E+03 2.278400E+03 2.301680E+03 2.187030E+03 2.196400E+03 2.196400E+03 2.210620E+03 2.278400E+03 2.301680E+03 2.193080E+03 2.205010E+03 2.205010E+03 2.220950E+03 2.290430E+03 2.313930E+03 2.193080E+03 2.205010E+03 2.205010E+03 2.220950E+03 2.220950E+03 2.233060E+03 2.201890E+03 2.220310E+03 2.220310E+03 2.241450E+03 2.241450E+03 2.253700E+03 2.183220E+03 2.193320E+03 2.193320E+03 2.207460E+03 2.260380E+03 2.283410E+03 2.187030E+03 2.196400E+03 2.19640