-- This reservoir simulation deck is made available under the Open Database
-- License: http://opendatacommons.org/licenses/odbl/1.0/. Any rights in
-- individual contents of the database are licensed under the Database Contents
-- License: http://opendatacommons.org/licenses/dbcl/1.0/
-- Copyright (C) 2026 NORCE Research AS
----------------------------------------------------------------------------
RUNSPEC
----------------------------------------------------------------------------
DIMENS 
4 1 2 /

EQLDIMS
/

TABDIMS
/

CO2STORE
GAS
WATER

METRIC

START
1 JAN 2025 /

WELLDIMS
/

UNIFIN
UNIFOUT
----------------------------------------------------------------------------
GRID
----------------------------------------------------------------------------
INIT

COORD
     0   0 0      0   0 2E3
 2.5E3   0 0  2.5E3   0 2E3
   5E3   0 0    5E3   0 2E3
 7.5E3   0 0  7.5E3   0 2E3
  10E3   0 0   10E3   0 2E3
     0 1E3 0      0 1E3 2E3
 2.5E3 1E3 0  2.5E3 1E3 2E3
   5E3 1E3 0    5E3 1E3 2E3
 7.5E3 1E3 0  7.5E3 1E3 2E3
  10E3 1E3 0   10E3 1E3 2E3 /

ZCORN
16*0
10E2 10E2 4*5E2 10E2 10E2 10E2 10E2 4*5E2 10E2 10E2
10E2 10E2 4*5E2 10E2 10E2 10E2 10E2 4*5E2 10E2 10E2
16*10E2 /

PORO
8*1 /

PERMX
8*10.13 /

COPY
PERMX PERMY /
PERMX PERMZ /
/
----------------------------------------------------------------------------
PROPS
----------------------------------------------------------------------------
SGWFN
0 0 1 0
1 1 0 0 /

ROCK
276 4.934e-05 /
----------------------------------------------------------------------------
SOLUTION
----------------------------------------------------------------------------
EQUIL
0 200.0 0 0 0 0 1 1 0 /

RPTRST 
BASIC=2 /
----------------------------------------------------------------------------
SUMMARY
----------------------------------------------------------------------------
----------------------------------------------------------------------------
SCHEDULE
----------------------------------------------------------------------------
RPTRST
BASIC=2 /

SOURCE
1 1 1 WATER 8.015165E+06 /
/
TSTEP
1 /
